FoamFile
{
    version     2.0;
    format      ascii;
    class       dictionary;
    location    ".";
    object      dict;
}

solvers
{
    p
    {
        solver          PCG;
        preconditioner  DIC;
        tolerance       1e-06;
        relTol          0;
    }

    U
    {
        solver          PBiCG;
        preconditioner  DILU;
        tolerance       1e-05;
        relTol          0;
    }
}

PISO
{
    nCorrectors     2;
    nNonOrthogonalCorrectors 0;
    pRefCell        0;
    pRefValue       0;
}

internalField nonuniform
3
(
    (0 0 0)
    (1 0 0)
    (2 0 0)
);
